Info: SIMULATION PARAMETERS:
Info: TIMESTEP               1
Info: NUMBER OF STEPS        0
Info: STEPS PER CYCLE        20
Info: FIRST LDB TIMESTEP     100
Info: LAST LDB TIMESTEP     -1
Info: HOM BACKGROUND SCALING 1
Info: REMOVING LOAD FROM NODE 0
Info: REMOVING PATCHES FROM PROCESSOR 0
Info: MIN ATOMS PER PATCH    40
Info: INITIAL TEMPERATURE    300
Info: CENTER OF MASS MOVING INITIALLY? NO
Info: DIELECTRIC             80
Info: EXCLUDE                SCALED ONE-FOUR
Info: 1-4 ELECTROSTATICS SCALED BY 1
Info: MODIFIED 1-4 VDW PARAMETERS WILL BE USED
Info: DCD FILENAME           adk-step1.dcd
Info: DCD FREQUENCY          1000
Info: DCD FIRST STEP         1000
Info: NO EXTENDED SYSTEM TRAJECTORY OUTPUT
Info: NO VELOCITY DCD OUTPUT
Info: NO FORCE DCD OUTPUT
Info: OUTPUT FILENAME        adk-step1
Info: BINARY OUTPUT FILES WILL BE USED
Info: RESTART FILENAME       adk-step1.restart
Info: RESTART FREQUENCY      1000
Info: BINARY RESTART FILES WILL BE USED
Info: SWITCHING ACTIVE
Info: SWITCHING ON           9
Info: SWITCHING OFF          10
Info: PAIRLIST DISTANCE      11
Info: PAIRLIST SHRINK RATE   0.01
Info: PAIRLIST GROW RATE     0.01
Info: PAIRLIST TRIGGER       0.3
Info: PAIRLISTS PER CYCLE    2
Info: PAIRLISTS ENABLED
Info: MARGIN                 0
Info: HYDROGEN GROUP CUTOFF  2.5
Info: PATCH DIMENSION        13.5
Info: ENERGY OUTPUT STEPS    100
Info: CROSSTERM ENERGY INCLUDED IN DIHEDRAL
Info: TIMING OUTPUT STEPS    1000
Info: PRESSURE OUTPUT STEPS  100
Info: GRID FORCE ACTIVE
Info:  Please include this reference in published work using
Info:  the Gridforce module of NAMD: David Wells, Volha Abramkina,
Info:  and Aleksei Aksimentiev, J. Chem. Phys. 127:125101-10 (2007).
Info: MGRIDFORCE key 0
Info:            Potfile 4ake-target_autopsf-grid.dx
Info:            Scale 0.3 0.3 0.3
Info:            File 1ake-docked-noh_autopsf-grid.pdb
Info:            Col O
Info:            ChargeCol B
Info:            VOffset 0 0 0
Info:            Continuous K1 FALSE
Info:            Continuous K2 FALSE
Info:            Continuous K3 FALSE
Info:            Volts FALSE
Info:            Gridforce-Lite FALSE
Info:            Gridforce-CheckSize TRUE
Info: LANGEVIN DYNAMICS ACTIVE
Info: LANGEVIN TEMPERATURE   300
Info: LANGEVIN USING BBK INTEGRATOR
Info: LANGEVIN DAMPING COEFFICIENT IS 5 INVERSE PS
Info: LANGEVIN DYNAMICS NOT APPLIED TO HYDROGENS
Info: USING VERLET I (r-RESPA) MTS SCHEME.
Info: C1 SPLITTING OF LONG RANGE ELECTROSTATICS
Info: PLACING ATOMS IN PATCHES BY HYDROGEN GROUPS
Info: RIGID BONDS TO HYDROGEN : WATER
Info:         ERROR TOLERANCE : 1e-08
Info:          MAX ITERATIONS : 100
Info: RIGID WATER USING SETTLE ALGORITHM
Info: NONBONDED FORCES EVALUATED EVERY 2 STEPS
Info: RANDOM NUMBER SEED     1588831256
Info: USE HYDROGEN BONDS?    NO
Info: COORDINATE PDB         1ake-docked-noh_autopsf.pdb
Info: STRUCTURE FILE         1ake-docked-noh_autopsf.psf
Info: PARAMETER file: CHARMM format!
Info: PARAMETERS             par_all36_prot.prm
Info: USING ARITHMETIC MEAN TO COMBINE L-J SIGMA PARAMETERS
Info: SUMMARY OF PARAMETERS:
Info: 132 BONDS
Info: 362 ANGLES
Info: 702 DIHEDRAL
Info: 35 IMPROPER
Info: 6 CROSSTERM
Info: 53 VDW
Info: 0 VDW_PAIRS
Info: 0 NBTHOLE_PAIRS
Info: READING EXTRA BONDS FILE 1ake-extrabonds.txt
Info: READING EXTRA BONDS FILE 1ake-extrabonds-cispeptide.txt
Info: READING EXTRA BONDS FILE 1ake-extrabonds-chirality.txt
Info: READ 80 EXTRA BONDS
Info: READ 80 EXTRA ANGLES
Info: READ 493 EXTRA DIHEDRALS
Info: READ 438 EXTRA IMPROPERS
Info: STRUCTURE SUMMARY:
Info: 3341 ATOMS
Info: 3445 BONDS
Info: 6203 ANGLES
Info: 9414 DIHEDRALS
Info: 1005 IMPROPERS
Info: 212 CROSSTERMS
Info: 0 EXCLUSIONS
Info: 0 RIGID BONDS
Info: 1 GRIDS ACTIVE
Info: 10023 DEGREES OF FREEDOM
Info: 1656 HYDROGEN GROUPS
Info: 4 ATOMS IN LARGEST HYDROGEN GROUP
Info: 1656 MIGRATION GROUPS
Info: 4 ATOMS IN LARGEST MIGRATION GROUP
Info: TOTAL MASS = 23582 amu
Info: TOTAL CHARGE = -4 e
Info: ADDED 18308 IMPLICIT EXCLUSIONS
Info: NONBONDED TABLE R-SQUARED SPACING: 0.0625
Info: NONBONDED TABLE SIZE: 705 POINTS
Info: ORIGINAL ATOMS MINMAX IS -23.898 -34.496 -33.608  17.384 11.03 11.856
Info: ADJUSTED ATOMS MINMAX IS -17.9247 -27.2432 -27.9465  11.6227 7.24925 4.4585
Info: REMOVING COM VELOCITY -0.0865972 0.088001 -0.167848
Info: Building spanning tree ... send: 1 recv: 0 with branch factor 4
TCL: Minimizing for 200 steps
Info: build node-aware spanning tree with send: 1, recv: 0 with branch factor 4
Info: build node-aware spanning tree with send: 1, recv: 0 with branch factor 4
ETITLE: TS BOND ANGLE DIHED IMPRP ELECT VDW BOUNDARY MISC KINETIC TOTAL TEMP POTENTIAL TOTAL3 TEMPAVG
ENERGY: 0 453.3959 950.1865 1860.6010 34.1180 -50.0859 -380.4176 0.0000 3861.7849 0.0000 6729.5828 0.0000 6729.5828 6729.5828 0.0000
ENERGY: 40 109.0391 566.1471 1835.7781 41.7200 -46.8469 -824.8411 0.0000 3864.4506 0.0000 5545.4469 0.0000 5545.4469 5545.4469 0.0000
ENERGY: 80 112.8177 512.7040 1812.9038 43.1520 -45.9301 -966.4614 0.0000 3868.0284 0.0000 5337.2144 0.0000 5337.2144 5337.2144 0.0000
ENERGY: 120 160.5640 545.3419 1926.6423 57.7021 -45.3049 -990.4497 0.0000 3863.7250 0.0000 5518.2207 0.0000 5518.2207 5518.2207 0.0000
ENERGY: 160 97.5575 450.4224 1789.7854 38.4745 -45.4812 -993.4749 0.0000 3862.5797 0.0000 5199.8634 0.0000 5199.8634 5199.8634 0.0000
ENERGY: 200 95.2868 444.1348 1782.7503 36.9857 -45.2076 -1014.9969 0.0000 3861.0079 0.0000 5159.9610 0.0000 5159.9610 5159.9610 0.0000
TCL: Running for 50000 steps
Info: build node-aware spanning tree with send: 1, recv: 0 with branch factor 4
Info: build node-aware spanning tree with send: 1, recv: 0 with branch factor 4
Info: build node-aware spanning tree with send: 1, recv: 0 with branch factor 4
Info: build node-aware spanning tree with send: 1, recv: 0 with branch factor 4
Info: build node-aware spanning tree with send: 1, recv: 0 with branch factor 4
Info: build node-aware spanning tree with send: 1, recv: 0 with branch factor 4
Info: build node-aware spanning tree with send: 1, recv: 0 with branch factor 4
Info: build node-aware spanning tree with send: 1, recv: 0 with branch factor 4
Info: build node-aware spanning tree with send: 1, recv: 0 with branch factor 4
Info: build node-aware spanning tree with send: 1, recv: 0 with branch factor 4
Info: build node-aware spanning tree with send: 1, recv: 0 with branch factor 4
Info: build node-aware spanning tree with send: 1, recv: 0 with branch factor 4
Info: build node-aware spanning tree with send: 1, recv: 0 with branch factor 4
Info: build node-aware spanning tree with send: 1, recv: 0 with branch factor 4
ETITLE: TS BOND ANGLE DIHED IMPRP ELECT VDW BOUNDARY MISC KINETIC TOTAL TEMP POTENTIAL TOTAL3 TEMPAVG
ENERGY: 200 95.2868 444.1348 1782.7503 36.9857 -45.2076 -1014.9969 0.0000 3861.0079 3025.4933 8185.4544 303.8008 5159.9610 8184.5676 303.8008
ENERGY: 10200 1068.5420 1669.9117 2058.1508 148.6544 -38.6807 -807.1789 0.0000 3050.8758 3038.4806 10188.7556 305.1049 7150.2751 10217.4053 298.3462
ENERGY: 20200 1093.8975 1724.9654 2068.4000 152.4058 -40.6531 -760.0922 0.0000 2680.4633 3020.4779 9939.8644 303.2971 6919.3865 9967.4213 305.6721
ENERGY: 30200 1081.3670 1758.6337 2083.8884 151.8722 -41.4213 -795.9001 0.0000 2514.0023 2969.2955 9721.7377 298.1577 6752.4422 9745.2947 301.2873
ENERGY: 40200 1072.6711 1670.3048 2086.0444 148.7123 -43.7510 -787.7596 0.0000 2394.9059 2945.9448 9487.0728 295.8130 6541.1280 9508.3149 296.8211
ENERGY: 50200 1052.5006 1714.2312 2062.0530 155.0143 -41.9629 -814.1798 0.0000 2386.6249 3016.8802 9531.1616 302.9359 6514.2814 9556.2411 299.9145
