Info: SIMULATION PARAMETERS:
Info: TIMESTEP               1
Info: NUMBER OF STEPS        0
Info: STEPS PER CYCLE        20
Info: FIRST LDB TIMESTEP     100
Info: LAST LDB TIMESTEP     -1
Info: HOM BACKGROUND SCALING 1
Info: MIN ATOMS PER PATCH    40
Info: INITIAL TEMPERATURE    300
Info: CENTER OF MASS MOVING INITIALLY? NO
Info: DIELECTRIC             80
Info: EXCLUDE                SCALED ONE-FOUR
Info: 1-4 ELECTROSTATICS SCALED BY 1
Info: MODIFIED 1-4 VDW PARAMETERS WILL BE USED
Info: DCD FILENAME           adk-step1.dcd
Info: DCD FREQUENCY          1000
Info: DCD FIRST STEP         1000
Info: NO EXTENDED SYSTEM TRAJECTORY OUTPUT
Info: NO VELOCITY DCD OUTPUT
Info: NO FORCE DCD OUTPUT
Info: OUTPUT FILENAME        adk-step1
Info: BINARY OUTPUT FILES WILL BE USED
Info: RESTART FILENAME       adk-step1.restart
Info: RESTART FREQUENCY      1000
Info: BINARY RESTART FILES WILL BE USED
Info: SWITCHING ACTIVE
Info: SWITCHING ON           9
Info: SWITCHING OFF          10
Info: PAIRLIST DISTANCE      11
Info: PAIRLIST SHRINK RATE   0.01
Info: PAIRLIST GROW RATE     0.01
Info: PAIRLIST TRIGGER       0.3
Info: PAIRLISTS PER CYCLE    2
Info: PAIRLISTS ENABLED
Info: MARGIN                 0
Info: HYDROGEN GROUP CUTOFF  2.5
Info: PATCH DIMENSION        13.5
Info: ENERGY OUTPUT STEPS    100
Info: CROSSTERM ENERGY INCLUDED IN DIHEDRAL
Info: TIMING OUTPUT STEPS    1000
Info: PRESSURE OUTPUT STEPS  100
Info: GRID FORCE ACTIVE
Info:  Please include this reference in published work using
Info:  the Gridforce module of NAMD: David Wells, Volha Abramkina,
Info:  and Aleksei Aksimentiev, J. Chem. Phys. 127:125101-10 (2007).
Info: MGRIDFORCE key BaseGridForceParams
Info:            Potfile 4ake-target_autopsf-grid.dx
Info:            Scale 0.3 0.3 0.3
Info:            File 1ake-initial_autopsf-grid.pdb
Info:            Col O
Info:            ChargeCol B
Info:            VOffset 0 0 0
Info:            Continuous K1 FALSE
Info:            Continuous K2 FALSE
Info:            Continuous K3 FALSE
Info:            Volts FALSE
Info:            Gridforce-Lite FALSE
Info:            Gridforce-CheckSize TRUE
Info: LANGEVIN DYNAMICS ACTIVE
Info: LANGEVIN TEMPERATURE   300
Info: LANGEVIN USING BBK INTEGRATOR
Info: LANGEVIN DAMPING COEFFICIENT IS 5 INVERSE PS
Info: LANGEVIN DYNAMICS NOT APPLIED TO HYDROGENS
Info: USING VERLET I (r-RESPA) MTS SCHEME.
Info: C1 SPLITTING OF LONG RANGE ELECTROSTATICS
Info: PLACING ATOMS IN PATCHES BY HYDROGEN GROUPS
Info: RIGID BONDS TO HYDROGEN : WATER
Info:         ERROR TOLERANCE : 1e-08
Info:          MAX ITERATIONS : 100
Info: RIGID WATER USING SETTLE ALGORITHM
Info: NONBONDED FORCES EVALUATED EVERY 2 STEPS
Info: RANDOM NUMBER SEED     1584127436
Info: USE HYDROGEN BONDS?    NO
Info: COORDINATE PDB         1ake-initial_autopsf-docked.pdb
Info: STRUCTURE FILE         1ake-initial_autopsf.psf
Info: PARAMETER file: CHARMM format!
Info: PARAMETERS             par_all27_prot_lipid_na.inp
Info: USING ARITHMETIC MEAN TO COMBINE L-J SIGMA PARAMETERS
Info: SUMMARY OF PARAMETERS:
Info: 307 BONDS
Info: 769 ANGLES
Info: 1254 DIHEDRAL
Info: 81 IMPROPER
Info: 6 CROSSTERM
Info: 190 VDW
Info: 0 VDW_PAIRS
Info: 0 NBTHOLE_PAIRS
Info: READING EXTRA BONDS FILE 1ake-extrabonds.txt
Info: READING EXTRA BONDS FILE 1ake-extrabonds-cispeptide.txt
Info: READING EXTRA BONDS FILE 1ake-extrabonds-chirality.txt
Info: READ 80 EXTRA BONDS
Info: READ 80 EXTRA ANGLES
Info: READ 493 EXTRA DIHEDRALS
Info: READ 438 EXTRA IMPROPERS
Info: STRUCTURE SUMMARY:
Info: 3341 ATOMS
Info: 3445 BONDS
Info: 6203 ANGLES
Info: 9414 DIHEDRALS
Info: 979 IMPROPERS
Info: 212 CROSSTERMS
Info: 0 EXCLUSIONS
Info: 0 RIGID BONDS
Info: 1 GRIDS ACTIVE
Info: 10023 DEGREES OF FREEDOM
Info: 1656 HYDROGEN GROUPS
Info: 4 ATOMS IN LARGEST HYDROGEN GROUP
Info: 1656 MIGRATION GROUPS
Info: 4 ATOMS IN LARGEST MIGRATION GROUP
Info: TOTAL MASS = 23582 amu
Info: TOTAL CHARGE = -4 e
Info: ADDED 18308 IMPLICIT EXCLUSIONS
Info: NONBONDED TABLE R-SQUARED SPACING: 0.0625
Info: NONBONDED TABLE SIZE: 705 POINTS
Info: ORIGINAL ATOMS MINMAX IS 2.506 25.381 3.59  47.97 66.663 49.116
Info: ADJUSTED ATOMS MINMAX IS 8.16863 31.1441 7.37075  40.5624 60.6729 41.8633
Info: REMOVING COM VELOCITY -0.165903 0.00903271 0.0813036
TCL: Minimizing for 200 steps
ETITLE: TS BOND ANGLE DIHED IMPRP ELECT VDW BOUNDARY MISC KINETIC TOTAL TEMP POTENTIAL TOTAL3 TEMPAVG
ENERGY: 0 466.9444 1813.5234 630.9287 34.0796 -49.7849 38.2737 0.0000 467.6790 0.0000 3401.6438 0.0000 3401.6438 3401.6438 0.0000
ENERGY: 40 130.1758 662.2296 668.9015 48.5037 -46.4068 -823.6476 0.0000 467.6790 0.0000 1107.4351 0.0000 1107.4351 1107.4351 0.0000
ENERGY: 80 109.8201 518.3727 628.7822 41.1248 -45.7379 -948.8049 0.0000 467.6790 0.0000 771.2360 0.0000 771.2360 771.2360 0.0000
ENERGY: 120 112.5567 461.6597 607.6346 39.2767 -45.2865 -1010.9622 0.0000 467.6790 0.0000 632.5580 0.0000 632.5580 632.5580 0.0000
ENERGY: 160 113.1493 448.2199 618.1221 40.7549 -44.7932 -1021.2121 0.0000 467.6790 0.0000 621.9199 0.0000 621.9199 621.9199 0.0000
ENERGY: 200 97.0052 428.5967 575.8304 33.1471 -44.6062 -1035.5244 0.0000 479.6850 0.0000 534.1338 0.0000 534.1338 534.1338 0.0000
TCL: Running for 50000 steps
ETITLE: TS BOND ANGLE DIHED IMPRP ELECT VDW BOUNDARY MISC KINETIC TOTAL TEMP POTENTIAL TOTAL3 TEMPAVG
ENERGY: 200 97.0052 428.5967 575.8304 33.1471 -44.6062 -1035.5244 0.0000 479.6850 3013.0648 3547.1986 302.5528 534.1338 3546.3309 302.5528
ENERGY: 10200 1120.4095 1686.0611 874.4974 137.0587 -39.1550 -912.9293 0.0000 480.8850 2956.0253 6302.8526 296.8252 3346.8273 6326.3874 300.0461
ENERGY: 20200 1097.0755 1695.7147 912.1162 137.3859 -40.4397 -917.1009 0.0000 472.4910 2956.6595 6313.9022 296.8889 3357.2427 6334.9425 301.7715
ENERGY: 30200 1041.9822 1597.4248 890.7953 131.1003 -38.8076 -923.9890 0.0000 456.2730 2945.8012 6100.5802 295.7986 3154.7790 6125.3618 292.0302
ENERGY: 40200 1124.7424 1683.7266 875.6303 152.5437 -40.7129 -940.9067 0.0000 477.2910 2913.5611 6245.8754 292.5612 3332.3143 6266.2856 297.6495
ENERGY: 50200 1126.5740 1716.2111 881.8184 137.2658 -41.1896 -957.3808 0.0000 519.3060 2971.2907 6353.8956 298.3581 3382.6049 6377.3045 301.8424
